  
       XFOIL         Version 6.99
  
 Calculated polar for: NACA 4412                                       
  
 1 1 Reynolds number fixed          Mach number fixed         
  
 xtrf =   1.000 (top)        1.000 (bottom)  
 Mach =   0.000     Re =     0.050 e 6     Ncrit =   9.000
  
   alpha    CL        CD       CDp       CM     Top_Xtr  Bot_Xtr
  ------ -------- --------- --------- -------- -------- --------
   0.000   0.1869   0.03339   0.02420  -0.0800   0.9060   1.0000
   1.000   0.3182   0.03675   0.02667  -0.0871   0.8598   1.0000
   2.000   0.4337   0.04028   0.02974  -0.0910   0.8169   1.0000
   3.000   0.5209   0.04472   0.03398  -0.0911   0.7756   1.0000
   4.000   0.6162   0.04931   0.03853  -0.0918   0.7364   1.0000
   5.000   0.6815   0.05544   0.04477  -0.0897   0.6954   1.0000
   6.000   0.7697   0.06083   0.05040  -0.0890   0.6537   1.0000
   7.000   0.8162   0.06867   0.05855  -0.0855   0.6072   1.0000
   8.000   0.8927   0.07441   0.06474  -0.0824   0.5561   1.0000
   9.000   0.9209   0.08343   0.07417  -0.0774   0.4968   1.0000
  10.000   1.3317   0.04386   0.03579  -0.0678   0.3915   1.0000
