  
       XFOIL         Version 6.99
  
 Calculated polar for: Generated_Airfoil                               
  
 1 1 Reynolds number fixed          Mach number fixed         
  
 xtrf =   1.000 (top)        1.000 (bottom)  
 Mach =   0.000     Re =     0.200 e 6     Ncrit =   9.000
  
   alpha    CL        CD       CDp       CM     Top_Xtr  Bot_Xtr
  ------ -------- --------- --------- -------- -------- --------
   0.000   0.2332   0.01510   0.00626  -0.0398   0.6425   0.2034
   1.000   0.3403   0.01474   0.00623  -0.0384   0.6235   0.2932
   4.000   0.8035   0.01358   0.00664  -0.0630   0.5349   1.0000
   5.000   0.9027   0.01329   0.00645  -0.0594   0.4556   1.0000
   6.000   0.9653   0.01905   0.01016  -0.0524   0.0392   1.0000
   7.000   1.0325   0.02304   0.01444  -0.0456   0.0298   1.0000
   8.000   1.0785   0.02869   0.02018  -0.0356   0.0268   1.0000
   9.000   1.1551   0.03542   0.02722  -0.0292   0.0267   1.0000
