  
       XFOIL         Version 6.99
  
 Calculated polar for: Generated_Airfoil                               
  
 1 1 Reynolds number fixed          Mach number fixed         
  
 xtrf =   1.000 (top)        1.000 (bottom)  
 Mach =   0.000     Re =     0.200 e 6     Ncrit =   9.000
  
   alpha    CL        CD       CDp       CM     Top_Xtr  Bot_Xtr
  ------ -------- --------- --------- -------- -------- --------
   0.000   0.2563   0.01563   0.00945  -0.0865   0.9613   0.6741
   1.000   0.3700   0.01581   0.01030  -0.0850   0.9405   0.9056
   2.000   0.5171   0.01462   0.00932  -0.0912   0.9133   1.0000
   3.000   0.6782   0.01159   0.00662  -0.0965   0.8634   1.0000
   4.000   0.7628   0.01196   0.00487  -0.0868   0.3954   1.0000
   5.000   0.8406   0.01579   0.00694  -0.0818   0.0532   1.0000
   6.000   0.9303   0.01925   0.01052  -0.0777   0.0267   1.0000
   7.000   1.0194   0.02499   0.01661  -0.0734   0.0254   1.0000
