  
       XFOIL         Version 6.99
  
 Calculated polar for: Generated_Airfoil                               
  
 1 1 Reynolds number fixed          Mach number fixed         
  
 xtrf =   1.000 (top)        1.000 (bottom)  
 Mach =   0.000     Re =     0.200 e 6     Ncrit =   9.000
  
   alpha    CL        CD       CDp       CM     Top_Xtr  Bot_Xtr
  ------ -------- --------- --------- -------- -------- --------
   0.000  -0.0132   0.02010   0.01183  -0.0333   1.0000   0.1018
   2.000   0.3589   0.01926   0.01365  -0.0636   0.9324   1.0000
   3.000   0.4949   0.01468   0.00930  -0.0648   0.8498   1.0000
   4.000   0.6622   0.01393   0.00614  -0.0736   0.3402   1.0000
   5.000   0.7541   0.01528   0.00701  -0.0700   0.1818   1.0000
   6.000   0.8576   0.01922   0.01006  -0.0687   0.0280   1.0000
   7.000   0.9633   0.02396   0.01517  -0.0671   0.0253   1.0000
   8.000   1.0798   0.03520   0.02746  -0.0673   0.0277   1.0000
