  
       XFOIL         Version 6.99
  
 Calculated polar for: Generated_Airfoil                               
  
 1 1 Reynolds number fixed          Mach number fixed         
  
 xtrf =   1.000 (top)        1.000 (bottom)  
 Mach =   0.000     Re =     0.200 e 6     Ncrit =   9.000
  
   alpha    CL        CD       CDp       CM     Top_Xtr  Bot_Xtr
  ------ -------- --------- --------- -------- -------- --------
   0.000   0.1638   0.01747   0.01074  -0.0419   0.8101   0.6101
   1.000   0.2771   0.01567   0.00925  -0.0404   0.7844   0.6673
   2.000   0.4767   0.01427   0.00878  -0.0547   0.7575   0.9682
   3.000   0.6615   0.01175   0.00570  -0.0671   0.6143   1.0000
   4.000   0.7608   0.01357   0.00641  -0.0652   0.4452   1.0000
   5.000   0.8376   0.01845   0.00899  -0.0617   0.0355   1.0000
   6.000   0.9222   0.02126   0.01222  -0.0574   0.0257   1.0000
   7.000   0.9765   0.02566   0.01697  -0.0490   0.0251   1.0000
   8.000   1.0307   0.03112   0.02256  -0.0398   0.0268   1.0000
