  
       XFOIL         Version 6.99
  
 Calculated polar for: Generated_Airfoil                               
  
 1 1 Reynolds number fixed          Mach number fixed         
  
 xtrf =   1.000 (top)        1.000 (bottom)  
 Mach =   0.000     Re =     0.200 e 6     Ncrit =   9.000
  
   alpha    CL        CD       CDp       CM     Top_Xtr  Bot_Xtr
  ------ -------- --------- --------- -------- -------- --------
   0.000  -0.0291   0.01714   0.00895  -0.0224   1.0000   0.1619
   1.000   0.0923   0.01745   0.00985  -0.0249   0.9948   0.2289
   3.000   0.6430   0.01412   0.00680  -0.0883   0.3713   0.9878
   4.000   0.7914   0.01549   0.00757  -0.0968   0.1939   1.0000
   5.000   0.8944   0.01853   0.00971  -0.0948   0.0400   1.0000
   6.000   0.9900   0.02174   0.01309  -0.0905   0.0269   1.0000
   7.000   1.0833   0.02804   0.01978  -0.0858   0.0242   1.0000
   8.000   1.1555   0.03848   0.03194  -0.0758   0.0267   1.0000
