  
       XFOIL         Version 6.99
  
 Calculated polar for: Generated_Airfoil                               
  
 1 1 Reynolds number fixed          Mach number fixed         
  
 xtrf =   1.000 (top)        1.000 (bottom)  
 Mach =   0.000     Re =     0.200 e 6     Ncrit =   9.000
  
   alpha    CL        CD       CDp       CM     Top_Xtr  Bot_Xtr
  ------ -------- --------- --------- -------- -------- --------
   0.000   0.3898   0.01516   0.00901  -0.1013   0.8128   0.7302
   1.000   0.5295   0.01475   0.00913  -0.1076   0.8012   1.0000
   2.000   0.6368   0.01534   0.00966  -0.1068   0.7817   1.0000
   3.000   0.7422   0.01304   0.00724  -0.1007   0.7363   1.0000
   4.000   0.8465   0.01094   0.00521  -0.0956   0.6532   1.0000
   5.000   0.8833   0.01712   0.00802  -0.0830   0.0349   1.0000
   6.000   0.9502   0.02125   0.01241  -0.0759   0.0273   1.0000
   7.000   1.0308   0.02670   0.01809  -0.0700   0.0256   1.0000
