  
       XFOIL         Version 6.99
  
 Calculated polar for: Generated_Airfoil                               
  
 1 1 Reynolds number fixed          Mach number fixed         
  
 xtrf =   1.000 (top)        1.000 (bottom)  
 Mach =   0.000     Re =     0.200 e 6     Ncrit =   9.000
  
   alpha    CL        CD       CDp       CM     Top_Xtr  Bot_Xtr
  ------ -------- --------- --------- -------- -------- --------
   0.000   0.0484   0.01578   0.00792  -0.0393   1.0000   0.1810
   1.000   0.1698   0.01475   0.00937  -0.0414   0.9978   0.8115
   2.000   0.3352   0.01554   0.01047  -0.0491   0.9518   0.8961
   3.000   0.5100   0.01093   0.00466  -0.0538   0.5395   0.9529
   4.000   0.6240   0.01269   0.00536  -0.0547   0.2964   0.9858
   5.000   0.7209   0.01629   0.00768  -0.0532   0.0309   1.0000
   6.000   0.8168   0.01979   0.01147  -0.0506   0.0277   1.0000
   7.000   0.9263   0.02692   0.01912  -0.0493   0.0300   1.0000
