  
       XFOIL         Version 6.99
  
 Calculated polar for: Generated_Airfoil                               
  
 1 1 Reynolds number fixed          Mach number fixed         
  
 xtrf =   1.000 (top)        1.000 (bottom)  
 Mach =   0.000     Re =     0.200 e 6     Ncrit =   9.000
  
   alpha    CL        CD       CDp       CM     Top_Xtr  Bot_Xtr
  ------ -------- --------- --------- -------- -------- --------
   0.000  -0.0008   0.02411   0.01621  -0.0324   1.0000   0.0593
   1.000   0.1092   0.02278   0.01460  -0.0323   1.0000   0.0672
   2.000   0.4373   0.02472   0.01900  -0.0778   0.9632   1.0000
   3.000   0.6689   0.02364   0.01806  -0.1011   0.9123   1.0000
   4.000   0.9086   0.01526   0.00741  -0.1169   0.3265   1.0000
   5.000   0.9692   0.01960   0.01017  -0.1071   0.0341   1.0000
   6.000   1.0478   0.02327   0.01404  -0.1001   0.0261   1.0000
   7.000   1.1650   0.03119   0.02273  -0.0996   0.0276   1.0000
