  
       XFOIL         Version 6.99
  
 Calculated polar for: Generated_Airfoil                               
  
 1 1 Reynolds number fixed          Mach number fixed         
  
 xtrf =   1.000 (top)        1.000 (bottom)  
 Mach =   0.000     Re =     0.200 e 6     Ncrit =   9.000
  
   alpha    CL        CD       CDp       CM     Top_Xtr  Bot_Xtr
  ------ -------- --------- --------- -------- -------- --------
   0.000   0.2247   0.02096   0.01302  -0.0749   0.8924   0.1275
   1.000   0.3277   0.01896   0.01336  -0.0724   0.8796   0.8698
   2.000   0.4899   0.01829   0.01281  -0.0814   0.8599   1.0000
   3.000   0.6593   0.01302   0.00767  -0.0853   0.8104   1.0000
   5.000   0.7711   0.01573   0.00705  -0.0607   0.0877   1.0000
   6.000   0.8470   0.01895   0.01005  -0.0543   0.0301   1.0000
   7.000   0.9320   0.02373   0.01498  -0.0496   0.0255   1.0000
   8.000   1.0502   0.03432   0.02638  -0.0500   0.0269   1.0000
