  
       XFOIL         Version 6.99
  
 Calculated polar for: Generated_Airfoil                               
  
 1 1 Reynolds number fixed          Mach number fixed         
  
 xtrf =   1.000 (top)        1.000 (bottom)  
 Mach =   0.000     Re =     0.200 e 6     Ncrit =   9.000
  
   alpha    CL        CD       CDp       CM     Top_Xtr  Bot_Xtr
  ------ -------- --------- --------- -------- -------- --------
   0.000   0.2647   0.01453   0.00792  -0.0951   0.9626   0.4663
   2.000   0.5817   0.01117   0.00646  -0.1095   0.8975   1.0000
   3.000   0.7065   0.00938   0.00396  -0.1064   0.6808   1.0000
   4.000   0.7750   0.01299   0.00527  -0.0972   0.2507   1.0000
   5.000   0.8561   0.01718   0.00831  -0.0915   0.0308   1.0000
   6.000   0.9386   0.02129   0.01261  -0.0854   0.0281   1.0000
   7.000   1.0354   0.02774   0.01938  -0.0813   0.0280   1.0000
